L24/1726527/Trafos.dss
! ==========================================================
! TRANSFORMADORES DE DISTRIBUICAO — gerados de UNTRMT/EQTRMT
! Secundario 1F/2F: 3 enrolamentos com derivacao central
! Neutro no no 4, aterrado em _ATERRAMENTO.dss
! Kv de BT conforme TEN_LIN_SE da BDGD
! ==========================================================
New Transformer.592816788_592816787 phases=3 windings=2 Xhl=4.900
~ wdg=1 bus=node_870870990.1.2.3 conn=delta Kv=13.8 Kva=300.0 %R=0.495
~ wdg=2 bus=node_870871002.1.2.3.4 conn=wye Kv=0.2200 Kva=300.0 %R=0.495
New Transformer.337609576_339063616 phases=3 windings=2 Xhl=3.840
~ wdg=1 bus=node_443212787.1.2.3 conn=delta Kv=13.8 Kva=150.0 %R=0.565
~ wdg=2 bus=node_422845936.1.2.3.4 conn=wye Kv=0.2200 Kva=150.0 %R=0.565
New Transformer.324504412_325201738 phases=3 windings=2 Xhl=3.840
~ wdg=1 bus=node_440222747.1.2.3 conn=delta Kv=13.8 Kva=150.0 %R=0.565
~ wdg=2 bus=node_416076700.1.2.3.4 conn=wye Kv=0.2200 Kva=150.0 %R=0.565
New Transformer.338289197_339026051 phases=3 windings=2 Xhl=3.840
~ wdg=1 bus=node_433442027.1.2.3 conn=delta Kv=13.8 Kva=150.0 %R=0.565
~ wdg=2 bus=node_416172976.1.2.3.4 conn=wye Kv=0.2200 Kva=150.0 %R=0.565
New Transformer.961770395_961770411 phases=3 windings=2 Xhl=3.840
~ wdg=1 bus=node_1223957878.1.2.3 conn=delta Kv=13.8 Kva=150.0 %R=0.565
~ wdg=2 bus=node_1223957795.1.2.3.4 conn=wye Kv=0.2200 Kva=150.0 %R=0.565
New Transformer.924176198_924176197 phases=3 windings=2 Xhl=3.840
~ wdg=1 bus=node_1183765714.1.2.3 conn=delta Kv=13.8 Kva=150.0 %R=0.565
~ wdg=2 bus=node_1183765681.1.2.3.4 conn=wye Kv=0.2200 Kva=150.0 %R=0.565
New Transformer.338060745_1148554848 phases=3 windings=2 Xhl=3.840
~ wdg=1 bus=node_734385713.1.2.3 conn=delta Kv=13.8 Kva=150.0 %R=0.565
~ wdg=2 bus=node_1381912312.1.2.3.4 conn=wye Kv=0.2200 Kva=150.0 %R=0.565
New Transformer.324344092_325180721 phases=3 windings=2 Xhl=3.840
~ wdg=1 bus=node_440223232.1.2.3 conn=delta Kv=13.8 Kva=150.0 %R=0.565
~ wdg=2 bus=node_416076694.1.2.3.4 conn=wye Kv=0.2200 Kva=150.0 %R=0.565
New Transformer.324824214_2576130654 phases=3 windings=2 Xhl=3.770
~ wdg=1 bus=node_441525356.1.2.3 conn=delta Kv=13.8 Kva=75.0 %R=0.670
~ wdg=2 bus=node_416076451.1.2.3.4 conn=wye Kv=0.2200 Kva=75.0 %R=0.670
New Transformer.324826579_325183474 phases=3 windings=2 Xhl=3.770
~ wdg=1 bus=node_1151135615.1.2.3 conn=delta Kv=13.8 Kva=75.0 %R=0.670
~ wdg=2 bus=node_1151135595.1.2.3.4 conn=wye Kv=0.2200 Kva=75.0 %R=0.670
New Transformer.324827850_325180723 phases=3 windings=2 Xhl=3.770
~ wdg=1 bus=node_440222156.1.2.3 conn=delta Kv=13.8 Kva=75.0 %R=0.670
~ wdg=2 bus=node_416078395.1.2.3.4 conn=wye Kv=0.2200 Kva=75.0 %R=0.670
New Transformer.324662913_325156411 phases=3 windings=2 Xhl=3.770
~ wdg=1 bus=node_440222821.1.2.3 conn=delta Kv=13.8 Kva=75.0 %R=0.670
~ wdg=2 bus=node_416078389.1.2.3.4 conn=wye Kv=0.2200 Kva=75.0 %R=0.670
New Transformer.324970070_325156410 phases=3 windings=2 Xhl=3.770
~ wdg=1 bus=node_440223457.1.2.3 conn=delta Kv=13.8 Kva=75.0 %R=0.670
~ wdg=2 bus=node_416077384.1.2.3.4 conn=wye Kv=0.2200 Kva=75.0 %R=0.670
New Transformer.750750215_750750214 phases=3 windings=2 Xhl=3.770
~ wdg=1 bus=node_1024170744.1.2.3 conn=delta Kv=13.8 Kva=75.0 %R=0.670
~ wdg=2 bus=node_1024170809.1.2.3.4 conn=wye Kv=0.2200 Kva=75.0 %R=0.670
New Transformer.324346108_2558283348 phases=3 windings=2 Xhl=3.770
~ wdg=1 bus=node_430197475.1.2.3 conn=delta Kv=13.8 Kva=75.0 %R=0.670
~ wdg=2 bus=node_412163435.1.2.3.4 conn=wye Kv=0.2200 Kva=75.0 %R=0.670
New Transformer.1441393034_1441393033 phases=3 windings=2 Xhl=3.770
~ wdg=1 bus=node_1737683503.1.2.3 conn=delta Kv=13.8 Kva=75.0 %R=0.670
~ wdg=2 bus=node_1737683464.1.2.3.4 conn=wye Kv=0.2200 Kva=75.0 %R=0.670
New Transformer.971959868_971959878 phases=3 windings=2 Xhl=3.770
~ wdg=1 bus=node_1234112934.1.2.3 conn=delta Kv=13.8 Kva=75.0 %R=0.670
~ wdg=2 bus=node_1234112889.1.2.3.4 conn=wye Kv=0.2200 Kva=75.0 %R=0.670
New Transformer.338289528_587144384 phases=3 windings=2 Xhl=3.770
~ wdg=1 bus=node_443212602.1.2.3 conn=delta Kv=13.8 Kva=75.0 %R=0.670
~ wdg=2 bus=node_422757913.1.2.3.4 conn=wye Kv=0.2200 Kva=75.0 %R=0.670
New Transformer.324505830_2057006380 phases=3 windings=2 Xhl=3.770
~ wdg=1 bus=node_430196005.1.2.3 conn=delta Kv=13.8 Kva=75.0 %R=0.670
~ wdg=2 bus=node_416255505.1.2.3.4 conn=wye Kv=0.2200 Kva=75.0 %R=0.670
New Transformer.579836567_579836568 phases=3 windings=2 Xhl=3.770
~ wdg=1 bus=node_848276093.1.2.3 conn=delta Kv=13.8 Kva=75.0 %R=0.670
~ wdg=2 bus=node_848275854.1.2.3.4 conn=wye Kv=0.2200 Kva=75.0 %R=0.670
New Transformer.337609327_338960014 phases=3 windings=2 Xhl=3.770
~ wdg=1 bus=node_434238814.1.2.3 conn=delta Kv=13.8 Kva=75.0 %R=0.670
~ wdg=2 bus=node_417397382.1.2.3.4 conn=wye Kv=0.2200 Kva=75.0 %R=0.670
New Transformer.337609068_2577375017 phases=3 windings=2 Xhl=3.770
~ wdg=1 bus=node_434238984.1.2.3 conn=delta Kv=13.8 Kva=75.0 %R=0.670
~ wdg=2 bus=node_422857681.1.2.3.4 conn=wye Kv=0.2200 Kva=75.0 %R=0.670
New Transformer.337852576_339064002 phases=3 windings=2 Xhl=3.770
~ wdg=1 bus=node_436666735.1.2.3 conn=delta Kv=13.8 Kva=75.0 %R=0.670
~ wdg=2 bus=node_422751004.1.2.3.4 conn=wye Kv=0.2200 Kva=75.0 %R=0.670
New Transformer.337853862_1225460367 phases=3 windings=2 Xhl=3.770
~ wdg=1 bus=node_429653471.1.2.3 conn=delta Kv=13.8 Kva=75.0 %R=0.670
~ wdg=2 bus=node_417397379.1.2.3.4 conn=wye Kv=0.2200 Kva=75.0 %R=0.670
New Transformer.337855275_339050048 phases=3 windings=2 Xhl=3.770
~ wdg=1 bus=node_429653686.1.2.3 conn=delta Kv=13.8 Kva=75.0 %R=0.670
~ wdg=2 bus=node_422758963.1.2.3.4 conn=wye Kv=0.2200 Kva=75.0 %R=0.670
New Transformer.2583816400_2583816399 phases=3 windings=2 Xhl=3.770
~ wdg=1 bus=node_2736331177.1.2.3 conn=delta Kv=13.8 Kva=75.0 %R=0.670
~ wdg=2 bus=node_2736331186.1.2.3.4 conn=wye Kv=0.2200 Kva=75.0 %R=0.670
New Transformer.2205995600_2205995599 phases=3 windings=2 Xhl=3.770
~ wdg=1 bus=node_2511574095.1.2.3 conn=delta Kv=13.8 Kva=75.0 %R=0.670
~ wdg=2 bus=node_2511574077.1.2.3.4 conn=wye Kv=0.2200 Kva=75.0 %R=0.670
New Transformer.2641939385_2641939384 phases=3 windings=2 Xhl=3.770
~ wdg=1 bus=node_983459248.1.2.3 conn=delta Kv=13.8 Kva=75.0 %R=0.670
~ wdg=2 bus=node_983459176.1.2.3.4 conn=wye Kv=0.2200 Kva=75.0 %R=0.670
New Transformer.2536096586_2536096585 phases=3 windings=2 Xhl=3.770
~ wdg=1 bus=node_2844461623.1.2.3 conn=delta Kv=13.8 Kva=75.0 %R=0.670
~ wdg=2 bus=node_2844461612.1.2.3.4 conn=wye Kv=0.2200 Kva=75.0 %R=0.670
New Transformer.324824126_325155488 phases=3 windings=2 Xhl=3.700
~ wdg=1 bus=node_431492107.1.2.3 conn=delta Kv=13.8 Kva=45.0 %R=0.760
~ wdg=2 bus=node_417414218.1.2.3.4 conn=wye Kv=0.2200 Kva=45.0 %R=0.760
New Transformer.324824911_325258787 phases=3 windings=2 Xhl=3.700
~ wdg=1 bus=node_424371086.1.2.3 conn=delta Kv=13.8 Kva=45.0 %R=0.760
~ wdg=2 bus=node_416076688.1.2.3.4 conn=wye Kv=0.2200 Kva=45.0 %R=0.760
New Transformer.324825485_325224419 phases=3 windings=2 Xhl=3.700
~ wdg=1 bus=node_440222387.1.2.3 conn=delta Kv=13.8 Kva=45.0 %R=0.760
~ wdg=2 bus=node_416076466.1.2.3.4 conn=wye Kv=0.2200 Kva=45.0 %R=0.760
New Transformer.324827150_325224418 phases=3 windings=2 Xhl=3.700
~ wdg=1 bus=node_440222547.1.2.3 conn=delta Kv=13.8 Kva=45.0 %R=0.760
~ wdg=2 bus=node_416076676.1.2.3.4 conn=wye Kv=0.2200 Kva=45.0 %R=0.760
New Transformer.1020542401_1020542400 phases=3 windings=2 Xhl=3.700
~ wdg=1 bus=node_1284988568.1.2.3 conn=delta Kv=13.8 Kva=45.0 %R=0.760
~ wdg=2 bus=node_1284988469.1.2.3.4 conn=wye Kv=0.2200 Kva=45.0 %R=0.760
New Transformer.324972671_325199357 phases=3 windings=2 Xhl=3.700
~ wdg=1 bus=node_430949935.1.2.3 conn=delta Kv=13.8 Kva=45.0 %R=0.760
~ wdg=2 bus=node_417414200.1.2.3.4 conn=wye Kv=0.2200 Kva=45.0 %R=0.760
New Transformer.324971986_782178659 phases=3 windings=2 Xhl=3.700
~ wdg=1 bus=node_440223057.1.2.3 conn=delta Kv=13.8 Kva=45.0 %R=0.760
~ wdg=2 bus=node_417469398.1.2.3.4 conn=wye Kv=0.2200 Kva=45.0 %R=0.760
New Transformer.324972829_325155489 phases=3 windings=2 Xhl=3.700
~ wdg=1 bus=node_430949964.1.2.3 conn=delta Kv=13.8 Kva=45.0 %R=0.760
~ wdg=2 bus=node_417414197.1.2.3.4 conn=wye Kv=0.2200 Kva=45.0 %R=0.760
New Transformer.324972922_325260033 phases=3 windings=2 Xhl=3.700
~ wdg=1 bus=node_1949274358.1.2.3 conn=delta Kv=13.8 Kva=45.0 %R=0.760
~ wdg=2 bus=node_1949274305.1.2.3.4 conn=wye Kv=0.2200 Kva=45.0 %R=0.760
New Transformer.324662048_2687129394 phases=3 windings=2 Xhl=3.700
~ wdg=1 bus=node_441525296.1.2.3 conn=delta Kv=13.8 Kva=45.0 %R=0.760
~ wdg=2 bus=node_447104164.1.2.3.4 conn=wye Kv=0.2200 Kva=45.0 %R=0.760
New Transformer.324345231_325183476 phases=3 windings=2 Xhl=3.700
~ wdg=1 bus=node_440222237.1.2.3 conn=delta Kv=13.8 Kva=45.0 %R=0.760
~ wdg=2 bus=node_416077198.1.2.3.4 conn=wye Kv=0.2200 Kva=45.0 %R=0.760
New Transformer.324663488_1262642119 phases=3 windings=2 Xhl=3.700
~ wdg=1 bus=node_438586850.1.2.3 conn=delta Kv=13.8 Kva=45.0 %R=0.760
~ wdg=2 bus=node_416076454.1.2.3.4 conn=wye Kv=0.2200 Kva=45.0 %R=0.760
New Transformer.324663749_325197529 phases=3 windings=2 Xhl=3.700
~ wdg=1 bus=node_424371221.1.2.3 conn=delta Kv=13.8 Kva=45.0 %R=0.760
~ wdg=2 bus=node_416076685.1.2.3.4 conn=wye Kv=0.2200 Kva=45.0 %R=0.760
New Transformer.324663712_325199381 phases=3 windings=2 Xhl=3.700
~ wdg=1 bus=node_437814999.1.2.3 conn=delta Kv=13.8 Kva=45.0 %R=0.760
~ wdg=2 bus=node_417397739.1.2.3.4 conn=wye Kv=0.2200 Kva=45.0 %R=0.760
New Transformer.324664864_325182284 phases=3 windings=2 Xhl=3.700
~ wdg=1 bus=node_440222392.1.2.3 conn=delta Kv=13.8 Kva=45.0 %R=0.760
~ wdg=2 bus=node_416078398.1.2.3.4 conn=wye Kv=0.2200 Kva=45.0 %R=0.760
New Transformer.324664872_782178635 phases=3 windings=2 Xhl=3.700
~ wdg=1 bus=node_440222196.1.2.3 conn=delta Kv=13.8 Kva=45.0 %R=0.760
~ wdg=2 bus=node_417469851.1.2.3.4 conn=wye Kv=0.2200 Kva=45.0 %R=0.760
New Transformer.324345435_325197527 phases=3 windings=2 Xhl=3.700
~ wdg=1 bus=node_440223516.1.2.3 conn=delta Kv=13.8 Kva=45.0 %R=0.760
~ wdg=2 bus=node_416077372.1.2.3.4 conn=wye Kv=0.2200 Kva=45.0 %R=0.760
New Transformer.324196310_325260016 phases=3 windings=2 Xhl=3.700
~ wdg=1 bus=node_440222151.1.2.3 conn=delta Kv=13.8 Kva=45.0 %R=0.760
~ wdg=2 bus=node_417414212.1.2.3.4 conn=wye Kv=0.2200 Kva=45.0 %R=0.760
New Transformer.324346102_325156998 phases=3 windings=2 Xhl=3.700
~ wdg=1 bus=node_424369462.1.2.3 conn=delta Kv=13.8 Kva=45.0 %R=0.760
~ wdg=2 bus=node_416775303.1.2.3.4 conn=wye Kv=0.2200 Kva=45.0 %R=0.760
New Transformer.899962355_899962354 phases=3 windings=2 Xhl=3.700
~ wdg=1 bus=node_440222977.1.2.3 conn=delta Kv=13.8 Kva=45.0 %R=0.760
~ wdg=2 bus=node_446931806.1.2.3.4 conn=wye Kv=0.2200 Kva=45.0 %R=0.760
New Transformer.782178228_782178229 phases=3 windings=2 Xhl=3.700
~ wdg=1 bus=node_1054864671.1.2.3 conn=delta Kv=13.8 Kva=45.0 %R=0.760
~ wdg=2 bus=node_1054864836.1.2.3.4 conn=wye Kv=0.2200 Kva=45.0 %R=0.760
New Transformer.338060794_338524971 phases=3 windings=2 Xhl=3.700
~ wdg=1 bus=node_434236546.1.2.3 conn=delta Kv=13.8 Kva=45.0 %R=0.760
~ wdg=2 bus=node_422752054.1.2.3.4 conn=wye Kv=0.2200 Kva=45.0 %R=0.760
New Transformer.338286390_339025194 phases=3 windings=2 Xhl=3.700
~ wdg=1 bus=node_436666451.1.2.3 conn=delta Kv=13.8 Kva=45.0 %R=0.760
~ wdg=2 bus=node_422758966.1.2.3.4 conn=wye Kv=0.2200 Kva=45.0 %R=0.760
New Transformer.324503986_1065916800 phases=3 windings=2 Xhl=3.700
~ wdg=1 bus=node_440222917.1.2.3 conn=delta Kv=13.8 Kva=45.0 %R=0.760
~ wdg=2 bus=node_468914471.1.2.3.4 conn=wye Kv=0.2200 Kva=45.0 %R=0.760
New Transformer.324503163_325224471 phases=3 windings=2 Xhl=3.700
~ wdg=1 bus=node_438586911.1.2.3 conn=delta Kv=13.8 Kva=45.0 %R=0.760
~ wdg=2 bus=node_416044053.1.2.3.4 conn=wye Kv=0.2200 Kva=45.0 %R=0.760
New Transformer.324503696_325224417 phases=3 windings=2 Xhl=3.700
~ wdg=1 bus=node_2780532369.1.2.3 conn=delta Kv=13.8 Kva=45.0 %R=0.760
~ wdg=2 bus=node_447549136.1.2.3.4 conn=wye Kv=0.2200 Kva=45.0 %R=0.760
New Transformer.324504328_325223270 phases=3 windings=2 Xhl=3.700
~ wdg=1 bus=node_438586916.1.2.3 conn=delta Kv=13.8 Kva=45.0 %R=0.760
~ wdg=2 bus=node_416043516.1.2.3.4 conn=wye Kv=0.2200 Kva=45.0 %R=0.760
New Transformer.338521850_339053070 phases=3 windings=2 Xhl=3.700
~ wdg=1 bus=node_436666105.1.2.3 conn=delta Kv=13.8 Kva=45.0 %R=0.760
~ wdg=2 bus=node_422751301.1.2.3.4 conn=wye Kv=0.2200 Kva=45.0 %R=0.760
New Transformer.324504240_325197576 phases=3 windings=2 Xhl=3.700
~ wdg=1 bus=node_438586885.1.2.3 conn=delta Kv=13.8 Kva=45.0 %R=0.760
~ wdg=2 bus=node_416044050.1.2.3.4 conn=wye Kv=0.2200 Kva=45.0 %R=0.760
New Transformer.1509469862_1509469861 phases=3 windings=2 Xhl=3.700
~ wdg=1 bus=node_440222061.1.2.3 conn=delta Kv=13.8 Kva=45.0 %R=0.760
~ wdg=2 bus=node_447022276.1.2.3.4 conn=wye Kv=0.2200 Kva=45.0 %R=0.760
New Transformer.579836565_579836564 phases=3 windings=2 Xhl=3.700
~ wdg=1 bus=node_848275971.1.2.3 conn=delta Kv=13.8 Kva=45.0 %R=0.760
~ wdg=2 bus=node_848275762.1.2.3.4 conn=wye Kv=0.2200 Kva=45.0 %R=0.760
New Transformer.338522898_650347770 phases=3 windings=2 Xhl=3.700
~ wdg=1 bus=node_1284988579.1.2.3 conn=delta Kv=13.8 Kva=45.0 %R=0.760
~ wdg=2 bus=node_1284988435.1.2.3.4 conn=wye Kv=0.2200 Kva=45.0 %R=0.760
New Transformer.337609218_338962397 phases=3 windings=2 Xhl=3.700
~ wdg=1 bus=node_427386424.1.2.3 conn=delta Kv=13.8 Kva=45.0 %R=0.760
~ wdg=2 bus=node_422755012.1.2.3.4 conn=wye Kv=0.2200 Kva=45.0 %R=0.760
New Transformer.338523232_416376354 phases=3 windings=2 Xhl=3.700
~ wdg=1 bus=node_434237944.1.2.3 conn=delta Kv=13.8 Kva=45.0 %R=0.760
~ wdg=2 bus=node_423046607.1.2.3.4 conn=wye Kv=0.2200 Kva=45.0 %R=0.760
New Transformer.338523625_339001846 phases=3 windings=2 Xhl=3.700
~ wdg=1 bus=node_443211722.1.2.3 conn=delta Kv=13.8 Kva=45.0 %R=0.760
~ wdg=2 bus=node_422759923.1.2.3.4 conn=wye Kv=0.2200 Kva=45.0 %R=0.760
New Transformer.337852278_628555720 phases=3 windings=2 Xhl=3.700
~ wdg=1 bus=node_436665941.1.2.3 conn=delta Kv=13.8 Kva=45.0 %R=0.760
~ wdg=2 bus=node_422752915.1.2.3.4 conn=wye Kv=0.2200 Kva=45.0 %R=0.760
New Transformer.337853525_339063805 phases=3 windings=2 Xhl=3.700
~ wdg=1 bus=node_436330931.1.2.3 conn=delta Kv=13.8 Kva=45.0 %R=0.760
~ wdg=2 bus=node_422789626.1.2.3.4 conn=wye Kv=0.2200 Kva=45.0 %R=0.760
New Transformer.337855228_339050153 phases=3 windings=2 Xhl=3.700
~ wdg=1 bus=node_442756861.1.2.3 conn=delta Kv=13.8 Kva=45.0 %R=0.760
~ wdg=2 bus=node_422760898.1.2.3.4 conn=wye Kv=0.2200 Kva=45.0 %R=0.760
New Transformer.2546314204_2546314203 phases=3 windings=2 Xhl=3.700
~ wdg=1 bus=node_424369552.1.2.3 conn=delta Kv=13.8 Kva=45.0 %R=0.760
~ wdg=2 bus=node_447252808.1.2.3.4 conn=wye Kv=0.2200 Kva=45.0 %R=0.760
New Transformer.337855326_339000532 phases=1 windings=3 Xhl=2.139 Xht=2.139 Xlt=1.069
~ wdg=1 bus=node_429179449.3 conn=wye Kv=7.9674 Kva=37.5 %R=0.646
~ wdg=2 bus=node_423069218.1.4 conn=wye Kv=0.1200 Kva=37.5 %R=0.646
~ wdg=3 bus=node_423069218.4.2 conn=wye Kv=0.1200 Kva=37.5 %R=0.646
New Transformer.337853151_339051239 phases=1 windings=3 Xhl=2.139 Xht=2.139 Xlt=1.069
~ wdg=1 bus=node_429178733.3 conn=wye Kv=7.9674 Kva=37.5 %R=0.646
~ wdg=2 bus=node_423097423.1.4 conn=wye Kv=0.1200 Kva=37.5 %R=0.646
~ wdg=3 bus=node_423097423.4.2 conn=wye Kv=0.1200 Kva=37.5 %R=0.646
New Transformer.337854453_1798564172 phases=1 windings=3 Xhl=2.139 Xht=2.139 Xlt=1.069
~ wdg=1 bus=node_2122615170.3 conn=wye Kv=7.9674 Kva=37.5 %R=0.646
~ wdg=2 bus=node_2122615159.1.4 conn=wye Kv=0.1200 Kva=37.5 %R=0.646
~ wdg=3 bus=node_2122615159.4.2 conn=wye Kv=0.1200 Kva=37.5 %R=0.646
New Transformer.337611184_1704761000 phases=1 windings=3 Xhl=2.139 Xht=2.139 Xlt=1.069
~ wdg=1 bus=node_2030473863.2 conn=wye Kv=7.9674 Kva=37.5 %R=0.646
~ wdg=2 bus=node_2030473805.1.4 conn=wye Kv=0.1200 Kva=37.5 %R=0.646
~ wdg=3 bus=node_2030473805.4.2 conn=wye Kv=0.1200 Kva=37.5 %R=0.646
New Transformer.337852385_339063952 phases=1 windings=3 Xhl=2.139 Xht=2.139 Xlt=1.069
~ wdg=1 bus=node_734385684.3 conn=wye Kv=7.9674 Kva=37.5 %R=0.646
~ wdg=2 bus=node_734385693.1.4 conn=wye Kv=0.1200 Kva=37.5 %R=0.646
~ wdg=3 bus=node_734385693.4.2 conn=wye Kv=0.1200 Kva=37.5 %R=0.646
New Transformer.337611263_1214725367 phases=1 windings=3 Xhl=2.139 Xht=2.139 Xlt=1.069
~ wdg=1 bus=node_443334786.2 conn=wye Kv=7.9674 Kva=37.5 %R=0.646
~ wdg=2 bus=node_422801776.1.4 conn=wye Kv=0.1200 Kva=37.5 %R=0.646
~ wdg=3 bus=node_422801776.4.2 conn=wye Kv=0.1200 Kva=37.5 %R=0.646
New Transformer.337609705_615811128 phases=1 windings=3 Xhl=2.139 Xht=2.139 Xlt=1.069
~ wdg=1 bus=node_433442192.3 conn=wye Kv=7.9674 Kva=37.5 %R=0.646
~ wdg=2 bus=node_422760346.1.4 conn=wye Kv=0.1200 Kva=37.5 %R=0.646
~ wdg=3 bus=node_422760346.4.2 conn=wye Kv=0.1200 Kva=37.5 %R=0.646
New Transformer.337610755_1354653952 phases=1 windings=3 Xhl=2.139 Xht=2.139 Xlt=1.069
~ wdg=1 bus=node_442757716.1 conn=wye Kv=7.9674 Kva=37.5 %R=0.646
~ wdg=2 bus=node_422754088.1.4 conn=wye Kv=0.1200 Kva=37.5 %R=0.646
~ wdg=3 bus=node_422754088.4.2 conn=wye Kv=0.1200 Kva=37.5 %R=0.646
New Transformer.337610014_2096004464 phases=1 windings=3 Xhl=2.139 Xht=2.139 Xlt=1.069
~ wdg=1 bus=node_442757211.3 conn=wye Kv=7.9674 Kva=37.5 %R=0.646
~ wdg=2 bus=node_422760241.1.4 conn=wye Kv=0.1200 Kva=37.5 %R=0.646
~ wdg=3 bus=node_422760241.4.2 conn=wye Kv=0.1200 Kva=37.5 %R=0.646
New Transformer.337610671_339001803 phases=1 windings=3 Xhl=2.139 Xht=2.139 Xlt=1.069
~ wdg=1 bus=node_429493004.3 conn=wye Kv=7.9674 Kva=37.5 %R=0.646
~ wdg=2 bus=node_422751262.1.4 conn=wye Kv=0.1200 Kva=37.5 %R=0.646
~ wdg=3 bus=node_422751262.4.2 conn=wye Kv=0.1200 Kva=37.5 %R=0.646
New Transformer.337610913_339064068 phases=1 windings=3 Xhl=2.139 Xht=2.139 Xlt=1.069
~ wdg=1 bus=node_433443511.3 conn=wye Kv=7.9674 Kva=37.5 %R=0.646
~ wdg=2 bus=node_422760748.1.4 conn=wye Kv=0.1200 Kva=37.5 %R=0.646
~ wdg=3 bus=node_422760748.4.2 conn=wye Kv=0.1200 Kva=37.5 %R=0.646
New Transformer.337609106_338963681 phases=1 windings=3 Xhl=2.139 Xht=2.139 Xlt=1.069
~ wdg=1 bus=node_443071409.2 conn=wye Kv=7.9674 Kva=37.5 %R=0.646
~ wdg=2 bus=node_422754337.1.4 conn=wye Kv=0.1200 Kva=37.5 %R=0.646
~ wdg=3 bus=node_422754337.4.2 conn=wye Kv=0.1200 Kva=37.5 %R=0.646
New Transformer.337608725_338963484 phases=1 windings=3 Xhl=2.139 Xht=2.139 Xlt=1.069
~ wdg=1 bus=node_436666016.3 conn=wye Kv=7.9674 Kva=37.5 %R=0.646
~ wdg=2 bus=node_422801554.1.4 conn=wye Kv=0.1200 Kva=37.5 %R=0.646
~ wdg=3 bus=node_422801554.4.2 conn=wye Kv=0.1200 Kva=37.5 %R=0.646
New Transformer.338524250_338524966 phases=1 windings=3 Xhl=2.139 Xht=2.139 Xlt=1.069
~ wdg=1 bus=node_427218063.1 conn=wye Kv=7.9674 Kva=37.5 %R=0.646
~ wdg=2 bus=node_422752063.1.4 conn=wye Kv=0.1200 Kva=37.5 %R=0.646
~ wdg=3 bus=node_422752063.4.2 conn=wye Kv=0.1200 Kva=37.5 %R=0.646
New Transformer.338523762_1643150646 phases=1 windings=3 Xhl=2.139 Xht=2.139 Xlt=1.069
~ wdg=1 bus=node_436821233.1 conn=wye Kv=7.9674 Kva=37.5 %R=0.646
~ wdg=2 bus=node_422751643.1.4 conn=wye Kv=0.1200 Kva=37.5 %R=0.646
~ wdg=3 bus=node_422751643.4.2 conn=wye Kv=0.1200 Kva=37.5 %R=0.646
New Transformer.338523823_1446897653 phases=1 windings=3 Xhl=2.139 Xht=2.139 Xlt=1.069
~ wdg=1 bus=node_443069459.1 conn=wye Kv=7.9674 Kva=37.5 %R=0.646
~ wdg=2 bus=node_422754097.1.4 conn=wye Kv=0.1200 Kva=37.5 %R=0.646
~ wdg=3 bus=node_422754097.4.2 conn=wye Kv=0.1200 Kva=37.5 %R=0.646
New Transformer.338523827_338524947 phases=1 windings=3 Xhl=2.139 Xht=2.139 Xlt=1.069
~ wdg=1 bus=node_434407965.2 conn=wye Kv=7.9674 Kva=37.5 %R=0.646
~ wdg=2 bus=node_416105172.1.4 conn=wye Kv=0.1200 Kva=37.5 %R=0.646
~ wdg=3 bus=node_416105172.4.2 conn=wye Kv=0.1200 Kva=37.5 %R=0.646
New Transformer.338523228_1569147850 phases=1 windings=3 Xhl=2.139 Xht=2.139 Xlt=1.069
~ wdg=1 bus=node_429494039.1 conn=wye Kv=7.9674 Kva=37.5 %R=0.646
~ wdg=2 bus=node_423066932.1.4 conn=wye Kv=0.1200 Kva=37.5 %R=0.646
~ wdg=3 bus=node_423066932.4.2 conn=wye Kv=0.1200 Kva=37.5 %R=0.646
New Transformer.1832503194_1832503193 phases=1 windings=3 Xhl=2.139 Xht=2.139 Xlt=1.069
~ wdg=1 bus=node_2154888138.1 conn=wye Kv=7.9674 Kva=37.5 %R=0.646
~ wdg=2 bus=node_2154888166.1.4 conn=wye Kv=0.1200 Kva=37.5 %R=0.646
~ wdg=3 bus=node_2154888166.4.2 conn=wye Kv=0.1200 Kva=37.5 %R=0.646
New Transformer.338522733_339064035 phases=1 windings=3 Xhl=2.139 Xht=2.139 Xlt=1.069
~ wdg=1 bus=node_427389857.3 conn=wye Kv=7.9674 Kva=37.5 %R=0.646
~ wdg=2 bus=node_422760892.1.4 conn=wye Kv=0.1200 Kva=37.5 %R=0.646
~ wdg=3 bus=node_422760892.4.2 conn=wye Kv=0.1200 Kva=37.5 %R=0.646
New Transformer.338522579_339053844 phases=1 windings=3 Xhl=2.139 Xht=2.139 Xlt=1.069
~ wdg=1 bus=node_434407655.1 conn=wye Kv=7.9674 Kva=37.5 %R=0.646
~ wdg=2 bus=node_423098941.1.4 conn=wye Kv=0.1200 Kva=37.5 %R=0.646
~ wdg=3 bus=node_423098941.4.2 conn=wye Kv=0.1200 Kva=37.5 %R=0.646
New Transformer.337608479_339050022 phases=1 windings=3 Xhl=2.139 Xht=2.139 Xlt=1.069
~ wdg=1 bus=node_436666531.3 conn=wye Kv=7.9674 Kva=37.5 %R=0.646
~ wdg=2 bus=node_422758642.1.4 conn=wye Kv=0.1200 Kva=37.5 %R=0.646
~ wdg=3 bus=node_422758642.4.2 conn=wye Kv=0.1200 Kva=37.5 %R=0.646
New Transformer.338522540_1685253496 phases=1 windings=3 Xhl=2.139 Xht=2.139 Xlt=1.069
~ wdg=1 bus=node_2010695940.3 conn=wye Kv=7.9674 Kva=37.5 %R=0.646
~ wdg=2 bus=node_2010695935.1.4 conn=wye Kv=0.1200 Kva=37.5 %R=0.646
~ wdg=3 bus=node_2010695935.4.2 conn=wye Kv=0.1200 Kva=37.5 %R=0.646
New Transformer.2087459593_2087459592 phases=1 windings=3 Xhl=2.139 Xht=2.139 Xlt=1.069
~ wdg=1 bus=node_2399990057.3 conn=wye Kv=7.9674 Kva=37.5 %R=0.646
~ wdg=2 bus=node_2399990044.1.4 conn=wye Kv=0.1200 Kva=37.5 %R=0.646
~ wdg=3 bus=node_2399990044.4.2 conn=wye Kv=0.1200 Kva=37.5 %R=0.646
New Transformer.337607371_338962165 phases=1 windings=3 Xhl=2.139 Xht=2.139 Xlt=1.069
~ wdg=1 bus=node_434408894.3 conn=wye Kv=7.9674 Kva=37.5 %R=0.646
~ wdg=2 bus=node_416104110.1.4 conn=wye Kv=0.1200 Kva=37.5 %R=0.646
~ wdg=3 bus=node_416104110.4.2 conn=wye Kv=0.1200 Kva=37.5 %R=0.646
New Transformer.2072537858_2072537857 phases=1 windings=3 Xhl=2.139 Xht=2.139 Xlt=1.069
~ wdg=1 bus=node_2384823342.1 conn=wye Kv=7.9674 Kva=37.5 %R=0.646
~ wdg=2 bus=node_2384823576.1.4 conn=wye Kv=0.1200 Kva=37.5 %R=0.646
~ wdg=3 bus=node_2384823576.4.2 conn=wye Kv=0.1200 Kva=37.5 %R=0.646
New Transformer.336910779_338960724 phases=1 windings=3 Xhl=2.139 Xht=2.139 Xlt=1.069
~ wdg=1 bus=node_436667589.3 conn=wye Kv=7.9674 Kva=37.5 %R=0.646
~ wdg=2 bus=node_422847586.1.4 conn=wye Kv=0.1200 Kva=37.5 %R=0.646
~ wdg=3 bus=node_422847586.4.2 conn=wye Kv=0.1200 Kva=37.5 %R=0.646
New Transformer.1562745546_1562745545 phases=1 windings=3 Xhl=2.139 Xht=2.139 Xlt=1.069
~ wdg=1 bus=node_1882141952.3 conn=wye Kv=7.9674 Kva=37.5 %R=0.646
~ wdg=2 bus=node_1882141937.1.4 conn=wye Kv=0.1200 Kva=37.5 %R=0.646
~ wdg=3 bus=node_1882141937.4.2 conn=wye Kv=0.1200 Kva=37.5 %R=0.646
New Transformer.324505652_325182488 phases=1 windings=3 Xhl=2.139 Xht=2.139 Xlt=1.069
~ wdg=1 bus=node_432544456.3 conn=wye Kv=7.9674 Kva=37.5 %R=0.646
~ wdg=2 bus=node_417396158.1.4 conn=wye Kv=0.1200 Kva=37.5 %R=0.646
~ wdg=3 bus=node_417396158.4.2 conn=wye Kv=0.1200 Kva=37.5 %R=0.646
New Transformer.324505462_325258812 phases=1 windings=3 Xhl=2.139 Xht=2.139 Xlt=1.069
~ wdg=1 bus=node_424370122.1 conn=wye Kv=7.9674 Kva=37.5 %R=0.646
~ wdg=2 bus=node_416103084.1.4 conn=wye Kv=0.1200 Kva=37.5 %R=0.646
~ wdg=3 bus=node_416103084.4.2 conn=wye Kv=0.1200 Kva=37.5 %R=0.646
New Transformer.1390195449_1390195448 phases=1 windings=3 Xhl=2.139 Xht=2.139 Xlt=1.069
~ wdg=1 bus=node_1699771393.3 conn=wye Kv=7.9674 Kva=37.5 %R=0.646
~ wdg=2 bus=node_1699771367.1.4 conn=wye Kv=0.1200 Kva=37.5 %R=0.646
~ wdg=3 bus=node_1699771367.4.2 conn=wye Kv=0.1200 Kva=37.5 %R=0.646
New Transformer.324505175_1248489089 phases=1 windings=3 Xhl=2.139 Xht=2.139 Xlt=1.069
~ wdg=1 bus=node_429556642.1 conn=wye Kv=7.9674 Kva=37.5 %R=0.646
~ wdg=2 bus=node_416344536.1.4 conn=wye Kv=0.1200 Kva=37.5 %R=0.646
~ wdg=3 bus=node_416344536.4.2 conn=wye Kv=0.1200 Kva=37.5 %R=0.646
New Transformer.1734969280_1734969281 phases=1 windings=3 Xhl=2.139 Xht=2.139 Xlt=1.069
~ wdg=1 bus=node_2060853958.2 conn=wye Kv=7.9674 Kva=37.5 %R=0.646
~ wdg=2 bus=node_2060853929.1.4 conn=wye Kv=0.1200 Kva=37.5 %R=0.646
~ wdg=3 bus=node_2060853929.4.2 conn=wye Kv=0.1200 Kva=37.5 %R=0.646
New Transformer.324504794_325224455 phases=1 windings=3 Xhl=2.139 Xht=2.139 Xlt=1.069
~ wdg=1 bus=node_429878763.3 conn=wye Kv=7.9674 Kva=37.5 %R=0.646
~ wdg=2 bus=node_416105190.1.4 conn=wye Kv=0.1200 Kva=37.5 %R=0.646
~ wdg=3 bus=node_416105190.4.2 conn=wye Kv=0.1200 Kva=37.5 %R=0.646
New Transformer.338522041_339053042 phases=1 windings=3 Xhl=2.139 Xht=2.139 Xlt=1.069
~ wdg=1 bus=node_434408494.3 conn=wye Kv=7.9674 Kva=37.5 %R=0.646
~ wdg=2 bus=node_416104359.1.4 conn=wye Kv=0.1200 Kva=37.5 %R=0.646
~ wdg=3 bus=node_416104359.4.2 conn=wye Kv=0.1200 Kva=37.5 %R=0.646
New Transformer.324504480_1325248782 phases=1 windings=3 Xhl=2.139 Xht=2.139 Xlt=1.069
~ wdg=1 bus=node_424436607.3 conn=wye Kv=7.9674 Kva=37.5 %R=0.646
~ wdg=2 bus=node_416680461.1.4 conn=wye Kv=0.1200 Kva=37.5 %R=0.646
~ wdg=3 bus=node_416680461.4.2 conn=wye Kv=0.1200 Kva=37.5 %R=0.646
New Transformer.338289101_339025200 phases=1 windings=3 Xhl=2.139 Xht=2.139 Xlt=1.069
~ wdg=1 bus=node_429493513.3 conn=wye Kv=7.9674 Kva=37.5 %R=0.646
~ wdg=2 bus=node_422758663.1.4 conn=wye Kv=0.1200 Kva=37.5 %R=0.646
~ wdg=3 bus=node_422758663.4.2 conn=wye Kv=0.1200 Kva=37.5 %R=0.646
New Transformer.338289577_338999329 phases=1 windings=3 Xhl=2.139 Xht=2.139 Xlt=1.069
~ wdg=1 bus=node_434238759.1 conn=wye Kv=7.9674 Kva=37.5 %R=0.646
~ wdg=2 bus=node_503349008.1.4 conn=wye Kv=0.1200 Kva=37.5 %R=0.646
~ wdg=3 bus=node_503349008.4.2 conn=wye Kv=0.1200 Kva=37.5 %R=0.646
New Transformer.1465164445_1465164444 phases=1 windings=3 Xhl=2.139 Xht=2.139 Xlt=1.069
~ wdg=1 bus=node_1762785993.2 conn=wye Kv=7.9674 Kva=37.5 %R=0.646
~ wdg=2 bus=node_1762785945.1.4 conn=wye Kv=0.1200 Kva=37.5 %R=0.646
~ wdg=3 bus=node_1762785945.4.2 conn=wye Kv=0.1200 Kva=37.5 %R=0.646
New Transformer.324503684_1054619287 phases=1 windings=3 Xhl=2.139 Xht=2.139 Xlt=1.069
~ wdg=1 bus=node_440046654.1 conn=wye Kv=7.9674 Kva=37.5 %R=0.646
~ wdg=2 bus=node_714195289.1.4 conn=wye Kv=0.1200 Kva=37.5 %R=0.646
~ wdg=3 bus=node_714195289.4.2 conn=wye Kv=0.1200 Kva=37.5 %R=0.646
New Transformer.338288694_1675501624 phases=1 windings=3 Xhl=2.139 Xht=2.139 Xlt=1.069
~ wdg=1 bus=node_436666351.3 conn=wye Kv=7.9674 Kva=37.5 %R=0.646
~ wdg=2 bus=node_422757976.1.4 conn=wye Kv=0.1200 Kva=37.5 %R=0.646
~ wdg=3 bus=node_422757976.4.2 conn=wye Kv=0.1200 Kva=37.5 %R=0.646
New Transformer.338288380_809294476 phases=1 windings=3 Xhl=2.139 Xht=2.139 Xlt=1.069
~ wdg=1 bus=node_433442816.3 conn=wye Kv=7.9674 Kva=37.5 %R=0.646
~ wdg=2 bus=node_422805085.1.4 conn=wye Kv=0.1200 Kva=37.5 %R=0.646
~ wdg=3 bus=node_422805085.4.2 conn=wye Kv=0.1200 Kva=37.5 %R=0.646
New Transformer.338287400_338962402 phases=1 windings=3 Xhl=2.139 Xht=2.139 Xlt=1.069
~ wdg=1 bus=node_427386594.2 conn=wye Kv=7.9674 Kva=37.5 %R=0.646
~ wdg=2 bus=node_422755006.1.4 conn=wye Kv=0.1200 Kva=37.5 %R=0.646
~ wdg=3 bus=node_422755006.4.2 conn=wye Kv=0.1200 Kva=37.5 %R=0.646
New Transformer.338287450_338963793 phases=1 windings=3 Xhl=2.139 Xht=2.139 Xlt=1.069
~ wdg=1 bus=node_433442916.3 conn=wye Kv=7.9674 Kva=37.5 %R=0.646
~ wdg=2 bus=node_422760349.1.4 conn=wye Kv=0.1200 Kva=37.5 %R=0.646
~ wdg=3 bus=node_422760349.4.2 conn=wye Kv=0.1200 Kva=37.5 %R=0.646
New Transformer.1340419416_1586311358 phases=1 windings=3 Xhl=2.139 Xht=2.139 Xlt=1.069
~ wdg=1 bus=node_1635121007.3 conn=wye Kv=7.9674 Kva=37.5 %R=0.646
~ wdg=2 bus=node_1635120992.1.4 conn=wye Kv=0.1200 Kva=37.5 %R=0.646
~ wdg=3 bus=node_1635120992.4.2 conn=wye Kv=0.1200 Kva=37.5 %R=0.646
New Transformer.479098813_479098812 phases=1 windings=3 Xhl=2.139 Xht=2.139 Xlt=1.069
~ wdg=1 bus=node_749105527.3 conn=wye Kv=7.9674 Kva=37.5 %R=0.646
~ wdg=2 bus=node_749105581.1.4 conn=wye Kv=0.1200 Kva=37.5 %R=0.646
~ wdg=3 bus=node_749105581.4.2 conn=wye Kv=0.1200 Kva=37.5 %R=0.646
New Transformer.324502183_325180722 phases=1 windings=3 Xhl=2.139 Xht=2.139 Xlt=1.069
~ wdg=1 bus=node_440222912.1 conn=wye Kv=7.9674 Kva=37.5 %R=0.646
~ wdg=2 bus=node_416079475.1.4 conn=wye Kv=0.1200 Kva=37.5 %R=0.646
~ wdg=3 bus=node_416079475.4.2 conn=wye Kv=0.1200 Kva=37.5 %R=0.646
New Transformer.338285672_2309175792 phases=1 windings=3 Xhl=2.139 Xht=2.139 Xlt=1.069
~ wdg=1 bus=node_436667199.2 conn=wye Kv=7.9674 Kva=37.5 %R=0.646
~ wdg=2 bus=node_422752069.1.4 conn=wye Kv=0.1200 Kva=37.5 %R=0.646
~ wdg=3 bus=node_422752069.4.2 conn=wye Kv=0.1200 Kva=37.5 %R=0.646
New Transformer.338061469_2152084096 phases=1 windings=3 Xhl=2.139 Xht=2.139 Xlt=1.069
~ wdg=1 bus=node_443067994.3 conn=wye Kv=7.9674 Kva=37.5 %R=0.646
~ wdg=2 bus=node_416104422.1.4 conn=wye Kv=0.1200 Kva=37.5 %R=0.646
~ wdg=3 bus=node_416104422.4.2 conn=wye Kv=0.1200 Kva=37.5 %R=0.646
New Transformer.338061275_338524895 phases=1 windings=3 Xhl=2.139 Xht=2.139 Xlt=1.069
~ wdg=1 bus=node_436509097.2 conn=wye Kv=7.9674 Kva=37.5 %R=0.646
~ wdg=2 bus=node_422758675.1.4 conn=wye Kv=0.1200 Kva=37.5 %R=0.646
~ wdg=3 bus=node_422758675.4.2 conn=wye Kv=0.1200 Kva=37.5 %R=0.646
New Transformer.338060704_1656749726 phases=1 windings=3 Xhl=2.139 Xht=2.139 Xlt=1.069
~ wdg=1 bus=node_427697175.3 conn=wye Kv=7.9674 Kva=37.5 %R=0.646
~ wdg=2 bus=node_422750998.1.4 conn=wye Kv=0.1200 Kva=37.5 %R=0.646
~ wdg=3 bus=node_422750998.4.2 conn=wye Kv=0.1200 Kva=37.5 %R=0.646
New Transformer.324347056_1047478361 phases=1 windings=3 Xhl=2.139 Xht=2.139 Xlt=1.069
~ wdg=1 bus=node_424370397.3 conn=wye Kv=7.9674 Kva=37.5 %R=0.646
~ wdg=2 bus=node_416043519.1.4 conn=wye Kv=0.1200 Kva=37.5 %R=0.646
~ wdg=3 bus=node_416043519.4.2 conn=wye Kv=0.1200 Kva=37.5 %R=0.646
New Transformer.338060044_338962274 phases=1 windings=3 Xhl=2.139 Xht=2.139 Xlt=1.069
~ wdg=1 bus=node_434238004.1 conn=wye Kv=7.9674 Kva=37.5 %R=0.646
~ wdg=2 bus=node_422760505.1.4 conn=wye Kv=0.1200 Kva=37.5 %R=0.646
~ wdg=3 bus=node_422760505.4.2 conn=wye Kv=0.1200 Kva=37.5 %R=0.646
New Transformer.338060360_338961942 phases=1 windings=3 Xhl=2.139 Xht=2.139 Xlt=1.069
~ wdg=1 bus=node_434407865.2 conn=wye Kv=7.9674 Kva=37.5 %R=0.646
~ wdg=2 bus=node_422802343.1.4 conn=wye Kv=0.1200 Kva=37.5 %R=0.646
~ wdg=3 bus=node_422802343.4.2 conn=wye Kv=0.1200 Kva=37.5 %R=0.646
New Transformer.338060229_1527753672 phases=1 windings=3 Xhl=2.139 Xht=2.139 Xlt=1.069
~ wdg=1 bus=node_436822693.1 conn=wye Kv=7.9674 Kva=37.5 %R=0.646
~ wdg=2 bus=node_422757970.1.4 conn=wye Kv=0.1200 Kva=37.5 %R=0.646
~ wdg=3 bus=node_422757970.4.2 conn=wye Kv=0.1200 Kva=37.5 %R=0.646
New Transformer.338060027_338959826 phases=1 windings=3 Xhl=2.139 Xht=2.139 Xlt=1.069
~ wdg=1 bus=node_429493584.3 conn=wye Kv=7.9674 Kva=37.5 %R=0.646
~ wdg=2 bus=node_423096553.1.4 conn=wye Kv=0.1200 Kva=37.5 %R=0.646
~ wdg=3 bus=node_423096553.4.2 conn=wye Kv=0.1200 Kva=37.5 %R=0.646
New Transformer.338059881_339026946 phases=1 windings=3 Xhl=2.139 Xht=2.139 Xlt=1.069
~ wdg=1 bus=node_434238574.1 conn=wye Kv=7.9674 Kva=37.5 %R=0.646
~ wdg=2 bus=node_422855500.1.4 conn=wye Kv=0.1200 Kva=37.5 %R=0.646
~ wdg=3 bus=node_422855500.4.2 conn=wye Kv=0.1200 Kva=37.5 %R=0.646
New Transformer.324346171_325155502 phases=1 windings=3 Xhl=2.139 Xht=2.139 Xlt=1.069
~ wdg=1 bus=node_436714832.3 conn=wye Kv=7.9674 Kva=37.5 %R=0.646
~ wdg=2 bus=node_417397385.1.4 conn=wye Kv=0.1200 Kva=37.5 %R=0.646
~ wdg=3 bus=node_417397385.4.2 conn=wye Kv=0.1200 Kva=37.5 %R=0.646
New Transformer.324346695_927787405 phases=1 windings=3 Xhl=2.139 Xht=2.139 Xlt=1.069
~ wdg=1 bus=node_429880673.3 conn=wye Kv=7.9674 Kva=37.5 %R=0.646
~ wdg=2 bus=node_416076421.1.4 conn=wye Kv=0.1200 Kva=37.5 %R=0.646
~ wdg=3 bus=node_416076421.4.2 conn=wye Kv=0.1200 Kva=37.5 %R=0.646
New Transformer.744918851_744918850 phases=1 windings=3 Xhl=2.139 Xht=2.139 Xlt=1.069
~ wdg=1 bus=node_983459223.3 conn=wye Kv=7.9674 Kva=37.5 %R=0.646
~ wdg=2 bus=node_983459322.1.4 conn=wye Kv=0.1200 Kva=37.5 %R=0.646
~ wdg=3 bus=node_983459322.4.2 conn=wye Kv=0.1200 Kva=37.5 %R=0.646
New Transformer.338059548_1144093575 phases=1 windings=3 Xhl=2.139 Xht=2.139 Xlt=1.069
~ wdg=1 bus=node_429179266.3 conn=wye Kv=7.9674 Kva=37.5 %R=0.646
~ wdg=2 bus=node_422805061.1.4 conn=wye Kv=0.1200 Kva=37.5 %R=0.646
~ wdg=3 bus=node_422805061.4.2 conn=wye Kv=0.1200 Kva=37.5 %R=0.646
New Transformer.338059503_338963632 phases=1 windings=3 Xhl=2.139 Xht=2.139 Xlt=1.069
~ wdg=1 bus=node_434407305.3 conn=wye Kv=7.9674 Kva=37.5 %R=0.646
~ wdg=2 bus=node_422791651.1.4 conn=wye Kv=0.1200 Kva=37.5 %R=0.646
~ wdg=3 bus=node_422791651.4.2 conn=wye Kv=0.1200 Kva=37.5 %R=0.646
New Transformer.324345819_1605591010 phases=1 windings=3 Xhl=2.139 Xht=2.139 Xlt=1.069
~ wdg=1 bus=node_429725259.3 conn=wye Kv=7.9674 Kva=37.5 %R=0.646
~ wdg=2 bus=node_416079610.1.4 conn=wye Kv=0.1200 Kva=37.5 %R=0.646
~ wdg=3 bus=node_416079610.4.2 conn=wye Kv=0.1200 Kva=37.5 %R=0.646
New Transformer.324664534_325201767 phases=1 windings=3 Xhl=2.139 Xht=2.139 Xlt=1.069
~ wdg=1 bus=node_429722400.1 conn=wye Kv=7.9674 Kva=37.5 %R=0.646
~ wdg=2 bus=node_416102187.1.4 conn=wye Kv=0.1200 Kva=37.5 %R=0.646
~ wdg=3 bus=node_416102187.4.2 conn=wye Kv=0.1200 Kva=37.5 %R=0.646
New Transformer.324346388_629964152 phases=1 windings=3 Xhl=2.139 Xht=2.139 Xlt=1.069
~ wdg=1 bus=node_714714862.1 conn=wye Kv=7.9674 Kva=37.5 %R=0.646
~ wdg=2 bus=node_714714835.1.4 conn=wye Kv=0.1200 Kva=37.5 %R=0.646
~ wdg=3 bus=node_714714835.4.2 conn=wye Kv=0.1200 Kva=37.5 %R=0.646
New Transformer.324345280_1483456768 phases=1 windings=3 Xhl=2.139 Xht=2.139 Xlt=1.069
~ wdg=1 bus=node_440223522.1 conn=wye Kv=7.9674 Kva=37.5 %R=0.646
~ wdg=2 bus=node_447619294.1.4 conn=wye Kv=0.1200 Kva=37.5 %R=0.646
~ wdg=3 bus=node_447619294.4.2 conn=wye Kv=0.1200 Kva=37.5 %R=0.646
New Transformer.338058396_339053014 phases=1 windings=3 Xhl=2.139 Xht=2.139 Xlt=1.069
~ wdg=1 bus=node_433442931.3 conn=wye Kv=7.9674 Kva=37.5 %R=0.646
~ wdg=2 bus=node_422758699.1.4 conn=wye Kv=0.1200 Kva=37.5 %R=0.646
~ wdg=3 bus=node_422758699.4.2 conn=wye Kv=0.1200 Kva=37.5 %R=0.646
New Transformer.324663991_325183454 phases=1 windings=3 Xhl=2.139 Xht=2.139 Xlt=1.069
~ wdg=1 bus=node_430355996.3 conn=wye Kv=7.9674 Kva=37.5 %R=0.646
~ wdg=2 bus=node_412163768.1.4 conn=wye Kv=0.1200 Kva=37.5 %R=0.646
~ wdg=3 bus=node_412163768.4.2 conn=wye Kv=0.1200 Kva=37.5 %R=0.646
New Transformer.337856082_1920942389 phases=1 windings=3 Xhl=2.139 Xht=2.139 Xlt=1.069
~ wdg=1 bus=node_434407950.1 conn=wye Kv=7.9674 Kva=37.5 %R=0.646
~ wdg=2 bus=node_423100324.1.4 conn=wye Kv=0.1200 Kva=37.5 %R=0.646
~ wdg=3 bus=node_423100324.4.2 conn=wye Kv=0.1200 Kva=37.5 %R=0.646
New Transformer.337856034_2035167108 phases=1 windings=3 Xhl=2.139 Xht=2.139 Xlt=1.069
~ wdg=1 bus=node_2351484628.1 conn=wye Kv=7.9674 Kva=37.5 %R=0.646
~ wdg=2 bus=node_2351484604.1.4 conn=wye Kv=0.1200 Kva=37.5 %R=0.646
~ wdg=3 bus=node_2351484604.4.2 conn=wye Kv=0.1200 Kva=37.5 %R=0.646
New Transformer.854433079_854433078 phases=1 windings=3 Xhl=2.139 Xht=2.139 Xlt=1.069
~ wdg=1 bus=node_1122529016.3 conn=wye Kv=7.9674 Kva=37.5 %R=0.646
~ wdg=2 bus=node_1122529002.1.4 conn=wye Kv=0.1200 Kva=37.5 %R=0.646
~ wdg=3 bus=node_1122529002.4.2 conn=wye Kv=0.1200 Kva=37.5 %R=0.646
New Transformer.324663933_1659648176 phases=1 windings=3 Xhl=2.139 Xht=2.139 Xlt=1.069
~ wdg=1 bus=node_429722441.1 conn=wye Kv=7.9674 Kva=37.5 %R=0.646
~ wdg=2 bus=node_416079604.1.4 conn=wye Kv=0.1200 Kva=37.5 %R=0.646
~ wdg=3 bus=node_416079604.4.2 conn=wye Kv=0.1200 Kva=37.5 %R=0.646
New Transformer.324663864_602559852 phases=1 windings=3 Xhl=2.139 Xht=2.139 Xlt=1.069
~ wdg=1 bus=node_429878728.3 conn=wye Kv=7.9674 Kva=37.5 %R=0.646
~ wdg=2 bus=node_416076799.1.4 conn=wye Kv=0.1200 Kva=37.5 %R=0.646
~ wdg=3 bus=node_416076799.4.2 conn=wye Kv=0.1200 Kva=37.5 %R=0.646
New Transformer.324344604_325197554 phases=1 windings=3 Xhl=2.139 Xht=2.139 Xlt=1.069
~ wdg=1 bus=node_441523514.3 conn=wye Kv=7.9674 Kva=37.5 %R=0.646
~ wdg=2 bus=node_1694390941.1.4 conn=wye Kv=0.1200 Kva=37.5 %R=0.646
~ wdg=3 bus=node_1694390941.4.2 conn=wye Kv=0.1200 Kva=37.5 %R=0.646
New Transformer.337855411_1429077566 phases=1 windings=3 Xhl=2.139 Xht=2.139 Xlt=1.069
~ wdg=1 bus=node_434238734.2 conn=wye Kv=7.9674 Kva=37.5 %R=0.646
~ wdg=2 bus=node_416102499.1.4 conn=wye Kv=0.1200 Kva=37.5 %R=0.646
~ wdg=3 bus=node_416102499.4.2 conn=wye Kv=0.1200 Kva=37.5 %R=0.646
New Transformer.324970165_325197964 phases=1 windings=3 Xhl=2.139 Xht=2.139 Xlt=1.069
~ wdg=1 bus=node_430356370.1 conn=wye Kv=7.9674 Kva=37.5 %R=0.646
~ wdg=2 bus=node_416626100.1.4 conn=wye Kv=0.1200 Kva=37.5 %R=0.646
~ wdg=3 bus=node_416626100.4.2 conn=wye Kv=0.1200 Kva=37.5 %R=0.646
New Transformer.324662452_325201783 phases=1 windings=3 Xhl=2.139 Xht=2.139 Xlt=1.069
~ wdg=1 bus=node_424371362.3 conn=wye Kv=7.9674 Kva=37.5 %R=0.646
~ wdg=2 bus=node_416103123.1.4 conn=wye Kv=0.1200 Kva=37.5 %R=0.646
~ wdg=3 bus=node_416103123.4.2 conn=wye Kv=0.1200 Kva=37.5 %R=0.646
New Transformer.2482692093_2482692092 phases=1 windings=3 Xhl=2.139 Xht=2.139 Xlt=1.069
~ wdg=1 bus=node_2645585025.3 conn=wye Kv=7.9674 Kva=37.5 %R=0.646
~ wdg=2 bus=node_2645585012.1.4 conn=wye Kv=0.1200 Kva=37.5 %R=0.646
~ wdg=3 bus=node_2645585012.4.2 conn=wye Kv=0.1200 Kva=37.5 %R=0.646
New Transformer.324344113_325180740 phases=1 windings=3 Xhl=2.139 Xht=2.139 Xlt=1.069
~ wdg=1 bus=node_430355931.3 conn=wye Kv=7.9674 Kva=37.5 %R=0.646
~ wdg=2 bus=node_416076607.1.4 conn=wye Kv=0.1200 Kva=37.5 %R=0.646
~ wdg=3 bus=node_416076607.4.2 conn=wye Kv=0.1200 Kva=37.5 %R=0.646
New Transformer.324343019_325156466 phases=1 windings=3 Xhl=2.139 Xht=2.139 Xlt=1.069
~ wdg=1 bus=node_430194830.3 conn=wye Kv=7.9674 Kva=37.5 %R=0.646
~ wdg=2 bus=node_416078440.1.4 conn=wye Kv=0.1200 Kva=37.5 %R=0.646
~ wdg=3 bus=node_416078440.4.2 conn=wye Kv=0.1200 Kva=37.5 %R=0.646
New Transformer.324828059_325224618 phases=1 windings=3 Xhl=2.139 Xht=2.139 Xlt=1.069
~ wdg=1 bus=node_441522809.2 conn=wye Kv=7.9674 Kva=37.5 %R=0.646
~ wdg=2 bus=node_416279726.1.4 conn=wye Kv=0.1200 Kva=37.5 %R=0.646
~ wdg=3 bus=node_416279726.4.2 conn=wye Kv=0.1200 Kva=37.5 %R=0.646
New Transformer.324825189_1546814793 phases=1 windings=3 Xhl=2.139 Xht=2.139 Xlt=1.069
~ wdg=1 bus=node_430037172.3 conn=wye Kv=7.9674 Kva=37.5 %R=0.646
~ wdg=2 bus=node_416318059.1.4 conn=wye Kv=0.1200 Kva=37.5 %R=0.646
~ wdg=3 bus=node_416318059.4.2 conn=wye Kv=0.1200 Kva=37.5 %R=0.646
New Transformer.324971017_325258785 phases=3 windings=2 Xhl=3.640
~ wdg=1 bus=node_440223422.1.2.3 conn=delta Kv=13.8 Kva=30.0 %R=0.835
~ wdg=2 bus=node_416079469.1.2.3.4 conn=wye Kv=0.2200 Kva=30.0 %R=0.835
New Transformer.324972842_325260537 phases=3 windings=2 Xhl=3.640
~ wdg=1 bus=node_424436237.1.2.3 conn=delta Kv=13.8 Kva=30.0 %R=0.835
~ wdg=2 bus=node_416076703.1.2.3.4 conn=wye Kv=0.2200 Kva=30.0 %R=0.835
New Transformer.324663676_325260017 phases=3 windings=2 Xhl=3.640
~ wdg=1 bus=node_424371057.1.2.3 conn=delta Kv=13.8 Kva=30.0 %R=0.835
~ wdg=2 bus=node_416077201.1.2.3.4 conn=wye Kv=0.2200 Kva=30.0 %R=0.835
New Transformer.338285750_339064014 phases=3 windings=2 Xhl=3.640
~ wdg=1 bus=node_434236360.1.2.3 conn=delta Kv=13.8 Kva=30.0 %R=0.835
~ wdg=2 bus=node_422751436.1.2.3.4 conn=wye Kv=0.2200 Kva=30.0 %R=0.835
New Transformer.324502995_325180720 phases=3 windings=2 Xhl=3.640
~ wdg=1 bus=node_441524758.1.2.3 conn=delta Kv=13.8 Kva=30.0 %R=0.835
~ wdg=2 bus=node_416077186.1.2.3.4 conn=wye Kv=0.2200 Kva=30.0 %R=0.835
New Transformer.324504401_325260014 phases=3 windings=2 Xhl=3.640
~ wdg=1 bus=node_441524768.1.2.3 conn=delta Kv=13.8 Kva=30.0 %R=0.835
~ wdg=2 bus=node_416076667.1.2.3.4 conn=wye Kv=0.2200 Kva=30.0 %R=0.835
New Transformer.337607471_338963811 phases=3 windings=2 Xhl=3.640
~ wdg=1 bus=node_443071339.1.2.3 conn=delta Kv=13.8 Kva=30.0 %R=0.835
~ wdg=2 bus=node_422757589.1.2.3.4 conn=wye Kv=0.2200 Kva=30.0 %R=0.835
New Transformer.338522604_339050150 phases=3 windings=2 Xhl=3.640
~ wdg=1 bus=node_427698660.1.2.3 conn=delta Kv=13.8 Kva=30.0 %R=0.835
~ wdg=2 bus=node_422761078.1.2.3.4 conn=wye Kv=0.2200 Kva=30.0 %R=0.835
New Transformer.1060970440_1060970439 phases=1 windings=3 Xhl=2.058 Xht=2.058 Xlt=1.029
~ wdg=1 bus=node_1327756878.2 conn=wye Kv=7.9674 Kva=25.0 %R=0.710
~ wdg=2 bus=node_1327756863.1.4 conn=wye Kv=0.1200 Kva=25.0 %R=0.710
~ wdg=3 bus=node_1327756863.4.2 conn=wye Kv=0.1200 Kva=25.0 %R=0.710
New Transformer.324661370_1154244384 phases=1 windings=3 Xhl=2.058 Xht=2.058 Xlt=1.029
~ wdg=1 bus=node_429724560.1 conn=wye Kv=7.9674 Kva=25.0 %R=0.710
~ wdg=2 bus=node_416079571.1.4 conn=wye Kv=0.1200 Kva=25.0 %R=0.710
~ wdg=3 bus=node_416079571.4.2 conn=wye Kv=0.1200 Kva=25.0 %R=0.710
New Transformer.324661982_325260209 phases=1 windings=3 Xhl=2.058 Xht=2.058 Xlt=1.029
~ wdg=1 bus=node_441522789.2 conn=wye Kv=7.9674 Kva=25.0 %R=0.710
~ wdg=2 bus=node_468916750.1.4 conn=wye Kv=0.1200 Kva=25.0 %R=0.710
~ wdg=3 bus=node_468916750.4.2 conn=wye Kv=0.1200 Kva=25.0 %R=0.710
New Transformer.324661975_1552697556 phases=1 windings=3 Xhl=2.058 Xht=2.058 Xlt=1.029
~ wdg=1 bus=node_440223007.1 conn=wye Kv=7.9674 Kva=25.0 %R=0.710
~ wdg=2 bus=node_416078392.1.4 conn=wye Kv=0.1200 Kva=25.0 %R=0.710
~ wdg=3 bus=node_416078392.4.2 conn=wye Kv=0.1200 Kva=25.0 %R=0.710
New Transformer.337855980_339052827 phases=1 windings=3 Xhl=2.058 Xht=2.058 Xlt=1.029
~ wdg=1 bus=node_429653630.1 conn=wye Kv=7.9674 Kva=25.0 %R=0.710
~ wdg=2 bus=node_416079412.1.4 conn=wye Kv=0.1200 Kva=25.0 %R=0.710
~ wdg=3 bus=node_416079412.4.2 conn=wye Kv=0.1200 Kva=25.0 %R=0.710
New Transformer.324345058_325197918 phases=1 windings=3 Xhl=2.058 Xht=2.058 Xlt=1.029
~ wdg=1 bus=node_441523193.2 conn=wye Kv=7.9674 Kva=25.0 %R=0.710
~ wdg=2 bus=node_416278337.1.4 conn=wye Kv=0.1200 Kva=25.0 %R=0.710
~ wdg=3 bus=node_416278337.4.2 conn=wye Kv=0.1200 Kva=25.0 %R=0.710
New Transformer.338058438_339025223 phases=1 windings=3 Xhl=2.058 Xht=2.058 Xlt=1.029
~ wdg=1 bus=node_434237934.2 conn=wye Kv=7.9674 Kva=25.0 %R=0.710
~ wdg=2 bus=node_422757178.1.4 conn=wye Kv=0.1200 Kva=25.0 %R=0.710
~ wdg=3 bus=node_422757178.4.2 conn=wye Kv=0.1200 Kva=25.0 %R=0.710
New Transformer.338058378_1648359265 phases=1 windings=3 Xhl=2.058 Xht=2.058 Xlt=1.029
~ wdg=1 bus=node_443209682.1 conn=wye Kv=7.9674 Kva=25.0 %R=0.710
~ wdg=2 bus=node_422758690.1.4 conn=wye Kv=0.1200 Kva=25.0 %R=0.710
~ wdg=3 bus=node_422758690.4.2 conn=wye Kv=0.1200 Kva=25.0 %R=0.710
New Transformer.324346176_325197546 phases=1 windings=3 Xhl=2.058 Xht=2.058 Xlt=1.029
~ wdg=1 bus=node_2212857198.1 conn=wye Kv=7.9674 Kva=25.0 %R=0.710
~ wdg=2 bus=node_2195595274.1.4 conn=wye Kv=0.1200 Kva=25.0 %R=0.710
~ wdg=3 bus=node_2195595274.4.2 conn=wye Kv=0.1200 Kva=25.0 %R=0.710
New Transformer.324346988_1583043268 phases=1 windings=3 Xhl=2.058 Xht=2.058 Xlt=1.029
~ wdg=1 bus=node_430534919.1 conn=wye Kv=7.9674 Kva=25.0 %R=0.710
~ wdg=2 bus=node_416102352.1.4 conn=wye Kv=0.1200 Kva=25.0 %R=0.710
~ wdg=3 bus=node_416102352.4.2 conn=wye Kv=0.1200 Kva=25.0 %R=0.710
New Transformer.324346749_2069188542 phases=1 windings=3 Xhl=2.058 Xht=2.058 Xlt=1.029
~ wdg=1 bus=node_2719511730.1 conn=wye Kv=7.9674 Kva=25.0 %R=0.710
~ wdg=2 bus=node_2719511996.1.4 conn=wye Kv=0.1200 Kva=25.0 %R=0.710
~ wdg=3 bus=node_2719511996.4.2 conn=wye Kv=0.1200 Kva=25.0 %R=0.710
New Transformer.338061020_1265519099 phases=1 windings=3 Xhl=2.058 Xht=2.058 Xlt=1.029
~ wdg=1 bus=node_433441667.3 conn=wye Kv=7.9674 Kva=25.0 %R=0.710
~ wdg=2 bus=node_422757922.1.4 conn=wye Kv=0.1200 Kva=25.0 %R=0.710
~ wdg=3 bus=node_422757922.4.2 conn=wye Kv=0.1200 Kva=25.0 %R=0.710
New Transformer.1837857787_1837857786 phases=1 windings=3 Xhl=2.058 Xht=2.058 Xlt=1.029
~ wdg=1 bus=node_2239677522.2 conn=wye Kv=7.9674 Kva=25.0 %R=0.710
~ wdg=2 bus=node_2160070951.1.4 conn=wye Kv=0.1200 Kva=25.0 %R=0.710
~ wdg=3 bus=node_2160070951.4.2 conn=wye Kv=0.1200 Kva=25.0 %R=0.710
New Transformer.1871114818_1871114819 phases=1 windings=3 Xhl=2.058 Xht=2.058 Xlt=1.029
~ wdg=1 bus=node_2192074178.3 conn=wye Kv=7.9674 Kva=25.0 %R=0.710
~ wdg=2 bus=node_2192074147.1.4 conn=wye Kv=0.1200 Kva=25.0 %R=0.710
~ wdg=3 bus=node_2192074147.4.2 conn=wye Kv=0.1200 Kva=25.0 %R=0.710
New Transformer.338285965_339001912 phases=1 windings=3 Xhl=2.058 Xht=2.058 Xlt=1.029
~ wdg=1 bus=node_436667024.2 conn=wye Kv=7.9674 Kva=25.0 %R=0.710
~ wdg=2 bus=node_422751733.1.4 conn=wye Kv=0.1200 Kva=25.0 %R=0.710
~ wdg=3 bus=node_422751733.4.2 conn=wye Kv=0.1200 Kva=25.0 %R=0.710
New Transformer.324502868_1798237026 phases=1 windings=3 Xhl=2.058 Xht=2.058 Xlt=1.029
~ wdg=1 bus=node_429878718.1 conn=wye Kv=7.9674 Kva=25.0 %R=0.710
~ wdg=2 bus=node_416278991.1.4 conn=wye Kv=0.1200 Kva=25.0 %R=0.710
~ wdg=3 bus=node_416278991.4.2 conn=wye Kv=0.1200 Kva=25.0 %R=0.710
New Transformer.324502081_1356745133 phases=1 windings=3 Xhl=2.058 Xht=2.058 Xlt=1.029
~ wdg=1 bus=node_429880558.3 conn=wye Kv=7.9674 Kva=25.0 %R=0.710
~ wdg=2 bus=node_416599565.1.4 conn=wye Kv=0.1200 Kva=25.0 %R=0.710
~ wdg=3 bus=node_416599565.4.2 conn=wye Kv=0.1200 Kva=25.0 %R=0.710
New Transformer.338288301_339052505 phases=1 windings=3 Xhl=2.058 Xht=2.058 Xlt=1.029
~ wdg=1 bus=node_443070424.3 conn=wye Kv=7.9674 Kva=25.0 %R=0.710
~ wdg=2 bus=node_416102586.1.4 conn=wye Kv=0.1200 Kva=25.0 %R=0.710
~ wdg=3 bus=node_416102586.4.2 conn=wye Kv=0.1200 Kva=25.0 %R=0.710
New Transformer.338288218_338962790 phases=1 windings=3 Xhl=2.058 Xht=2.058 Xlt=1.029
~ wdg=1 bus=node_434407999.3 conn=wye Kv=7.9674 Kva=25.0 %R=0.710
~ wdg=2 bus=node_416102400.1.4 conn=wye Kv=0.1200 Kva=25.0 %R=0.710
~ wdg=3 bus=node_416102400.4.2 conn=wye Kv=0.1200 Kva=25.0 %R=0.710
New Transformer.338289722_1542250224 phases=1 windings=3 Xhl=2.058 Xht=2.058 Xlt=1.029
~ wdg=1 bus=node_443068744.2 conn=wye Kv=7.9674 Kva=25.0 %R=0.710
~ wdg=2 bus=node_422751634.1.4 conn=wye Kv=0.1200 Kva=25.0 %R=0.710
~ wdg=3 bus=node_422751634.4.2 conn=wye Kv=0.1200 Kva=25.0 %R=0.710
New Transformer.338521846_2082027500 phases=1 windings=3 Xhl=2.058 Xht=2.058 Xlt=1.029
~ wdg=1 bus=node_436822778.1 conn=wye Kv=7.9674 Kva=25.0 %R=0.710
~ wdg=2 bus=node_422759794.1.4 conn=wye Kv=0.1200 Kva=25.0 %R=0.710
~ wdg=3 bus=node_422759794.4.2 conn=wye Kv=0.1200 Kva=25.0 %R=0.710
New Transformer.1557743099_1557743098 phases=1 windings=3 Xhl=2.058 Xht=2.058 Xlt=1.029
~ wdg=1 bus=node_1877195398.1 conn=wye Kv=7.9674 Kva=25.0 %R=0.710
~ wdg=2 bus=node_1877195338.1.4 conn=wye Kv=0.1200 Kva=25.0 %R=0.710
~ wdg=3 bus=node_1877195338.4.2 conn=wye Kv=0.1200 Kva=25.0 %R=0.710
New Transformer.1569053369_1569053379 phases=1 windings=3 Xhl=2.058 Xht=2.058 Xlt=1.029
~ wdg=1 bus=node_1923621837.1 conn=wye Kv=7.9674 Kva=25.0 %R=0.710
~ wdg=2 bus=node_1923621829.1.4 conn=wye Kv=0.1200 Kva=25.0 %R=0.710
~ wdg=3 bus=node_1923621829.4.2 conn=wye Kv=0.1200 Kva=25.0 %R=0.710
New Transformer.336910372_339050591 phases=1 windings=3 Xhl=2.058 Xht=2.058 Xlt=1.029
~ wdg=1 bus=node_434407010.1 conn=wye Kv=7.9674 Kva=25.0 %R=0.710
~ wdg=2 bus=node_416079415.1.4 conn=wye Kv=0.1200 Kva=25.0 %R=0.710
~ wdg=3 bus=node_416079415.4.2 conn=wye Kv=0.1200 Kva=25.0 %R=0.710
New Transformer.2069734005_2069734004 phases=1 windings=3 Xhl=2.058 Xht=2.058 Xlt=1.029
~ wdg=1 bus=node_2382487709.3 conn=wye Kv=7.9674 Kva=25.0 %R=0.710
~ wdg=2 bus=node_2382487675.1.4 conn=wye Kv=0.1200 Kva=25.0 %R=0.710
~ wdg=3 bus=node_2382487675.4.2 conn=wye Kv=0.1200 Kva=25.0 %R=0.710
New Transformer.338522473_1713096049 phases=1 windings=3 Xhl=2.058 Xht=2.058 Xlt=1.029
~ wdg=1 bus=node_442925807.2 conn=wye Kv=7.9674 Kva=25.0 %R=0.710
~ wdg=2 bus=node_412383058.1.4 conn=wye Kv=0.1200 Kva=25.0 %R=0.710
~ wdg=3 bus=node_412383058.4.2 conn=wye Kv=0.1200 Kva=25.0 %R=0.710
New Transformer.338522462_2612852004 phases=1 windings=3 Xhl=2.058 Xht=2.058 Xlt=1.029
~ wdg=1 bus=node_442757066.1 conn=wye Kv=7.9674 Kva=25.0 %R=0.710
~ wdg=2 bus=node_422756785.1.4 conn=wye Kv=0.1200 Kva=25.0 %R=0.710
~ wdg=3 bus=node_422756785.4.2 conn=wye Kv=0.1200 Kva=25.0 %R=0.710
New Transformer.337608033_1433118298 phases=1 windings=3 Xhl=2.058 Xht=2.058 Xlt=1.029
~ wdg=1 bus=node_436822728.1 conn=wye Kv=7.9674 Kva=25.0 %R=0.710
~ wdg=2 bus=node_422755045.1.4 conn=wye Kv=0.1200 Kva=25.0 %R=0.710
~ wdg=3 bus=node_422755045.4.2 conn=wye Kv=0.1200 Kva=25.0 %R=0.710
New Transformer.338523150_2708925737 phases=1 windings=3 Xhl=2.058 Xht=2.058 Xlt=1.029
~ wdg=1 bus=node_429494094.1 conn=wye Kv=7.9674 Kva=25.0 %R=0.710
~ wdg=2 bus=node_422754367.1.4 conn=wye Kv=0.1200 Kva=25.0 %R=0.710
~ wdg=3 bus=node_422754367.4.2 conn=wye Kv=0.1200 Kva=25.0 %R=0.710
New Transformer.337608972_1371001336 phases=1 windings=3 Xhl=2.058 Xht=2.058 Xlt=1.029
~ wdg=1 bus=node_443334846.2 conn=wye Kv=7.9674 Kva=25.0 %R=0.710
~ wdg=2 bus=node_422801890.1.4 conn=wye Kv=0.1200 Kva=25.0 %R=0.710
~ wdg=3 bus=node_422801890.4.2 conn=wye Kv=0.1200 Kva=25.0 %R=0.710
New Transformer.337610457_2585215697 phases=1 windings=3 Xhl=2.058 Xht=2.058 Xlt=1.029
~ wdg=1 bus=node_443068319.2 conn=wye Kv=7.9674 Kva=25.0 %R=0.710
~ wdg=2 bus=node_422782573.1.4 conn=wye Kv=0.1200 Kva=25.0 %R=0.710
~ wdg=3 bus=node_422782573.4.2 conn=wye Kv=0.1200 Kva=25.0 %R=0.710
New Transformer.337610638_1277327592 phases=1 windings=3 Xhl=2.058 Xht=2.058 Xlt=1.029
~ wdg=1 bus=node_443211837.2 conn=wye Kv=7.9674 Kva=25.0 %R=0.710
~ wdg=2 bus=node_422801692.1.4 conn=wye Kv=0.1200 Kva=25.0 %R=0.710
~ wdg=3 bus=node_422801692.4.2 conn=wye Kv=0.1200 Kva=25.0 %R=0.710
New Transformer.337609949_1527715035 phases=1 windings=3 Xhl=2.058 Xht=2.058 Xlt=1.029
~ wdg=1 bus=node_1843448585.2 conn=wye Kv=7.9674 Kva=25.0 %R=0.710
~ wdg=2 bus=node_1843448553.1.4 conn=wye Kv=0.1200 Kva=25.0 %R=0.710
~ wdg=3 bus=node_1843448553.4.2 conn=wye Kv=0.1200 Kva=25.0 %R=0.710
New Transformer.337610095_2607854155 phases=1 windings=3 Xhl=2.058 Xht=2.058 Xlt=1.029
~ wdg=1 bus=node_434236566.3 conn=wye Kv=7.9674 Kva=25.0 %R=0.710
~ wdg=2 bus=node_422754073.1.4 conn=wye Kv=0.1200 Kva=25.0 %R=0.710
~ wdg=3 bus=node_422754073.4.2 conn=wye Kv=0.1200 Kva=25.0 %R=0.710
New Transformer.337854048_339025230 phases=1 windings=3 Xhl=2.058 Xht=2.058 Xlt=1.029
~ wdg=1 bus=node_433443441.3 conn=wye Kv=7.9674 Kva=25.0 %R=0.710
~ wdg=2 bus=node_422758981.1.4 conn=wye Kv=0.1200 Kva=25.0 %R=0.710
~ wdg=3 bus=node_422758981.4.2 conn=wye Kv=0.1200 Kva=25.0 %R=0.710
New Transformer.337853994_338962277 phases=1 windings=3 Xhl=2.058 Xht=2.058 Xlt=1.029
~ wdg=1 bus=node_427698780.2 conn=wye Kv=7.9674 Kva=25.0 %R=0.710
~ wdg=2 bus=node_422760187.1.4 conn=wye Kv=0.1200 Kva=25.0 %R=0.710
~ wdg=3 bus=node_422760187.4.2 conn=wye Kv=0.1200 Kva=25.0 %R=0.710
New Transformer.2710991190_2710991189 phases=1 windings=3 Xhl=2.058 Xht=2.058 Xlt=1.029
~ wdg=1 bus=node_2896504910.1 conn=wye Kv=7.9674 Kva=25.0 %R=0.710
~ wdg=2 bus=node_2896504937.1.4 conn=wye Kv=0.1200 Kva=25.0 %R=0.710
~ wdg=3 bus=node_2896504937.4.2 conn=wye Kv=0.1200 Kva=25.0 %R=0.710
New Transformer.324824055_325182485 phases=1 windings=3 Xhl=1.921 Xht=1.921 Xlt=0.961
~ wdg=1 bus=node_436714862.3 conn=wye Kv=7.9674 Kva=15.0 %R=0.800
~ wdg=2 bus=node_417396185.1.4 conn=wye Kv=0.1200 Kva=15.0 %R=0.800
~ wdg=3 bus=node_417396185.4.2 conn=wye Kv=0.1200 Kva=15.0 %R=0.800
New Transformer.324824577_325260056 phases=1 windings=3 Xhl=1.921 Xht=1.921 Xlt=0.961
~ wdg=1 bus=node_430197675.3 conn=wye Kv=7.9674 Kva=15.0 %R=0.800
~ wdg=2 bus=node_416102442.1.4 conn=wye Kv=0.1200 Kva=15.0 %R=0.800
~ wdg=3 bus=node_416102442.4.2 conn=wye Kv=0.1200 Kva=15.0 %R=0.800
New Transformer.324824162_325260058 phases=1 windings=3 Xhl=1.921 Xht=1.921 Xlt=0.961
~ wdg=1 bus=node_429724575.1 conn=wye Kv=7.9674 Kva=15.0 %R=0.800
~ wdg=2 bus=node_416079568.1.4 conn=wye Kv=0.1200 Kva=15.0 %R=0.800
~ wdg=3 bus=node_416079568.4.2 conn=wye Kv=0.1200 Kva=15.0 %R=0.800
New Transformer.324825007_325260035 phases=1 windings=3 Xhl=1.921 Xht=1.921 Xlt=0.961
~ wdg=1 bus=node_441349635.3 conn=wye Kv=7.9674 Kva=15.0 %R=0.800
~ wdg=2 bus=node_416076388.1.4 conn=wye Kv=0.1200 Kva=15.0 %R=0.800
~ wdg=3 bus=node_416076388.4.2 conn=wye Kv=0.1200 Kva=15.0 %R=0.800
New Transformer.324824957_325197569 phases=1 windings=3 Xhl=1.921 Xht=1.921 Xlt=0.961
~ wdg=1 bus=node_429722850.3 conn=wye Kv=7.9674 Kva=15.0 %R=0.800
~ wdg=2 bus=node_416104119.1.4 conn=wye Kv=0.1200 Kva=15.0 %R=0.800
~ wdg=3 bus=node_416104119.4.2 conn=wye Kv=0.1200 Kva=15.0 %R=0.800
New Transformer.324826081_325180775 phases=1 windings=3 Xhl=1.921 Xht=1.921 Xlt=0.961
~ wdg=1 bus=node_424436367.3 conn=wye Kv=7.9674 Kva=15.0 %R=0.800
~ wdg=2 bus=node_416104425.1.4 conn=wye Kv=0.1200 Kva=15.0 %R=0.800
~ wdg=3 bus=node_416104425.4.2 conn=wye Kv=0.1200 Kva=15.0 %R=0.800
New Transformer.324827647_476779996 phases=1 windings=3 Xhl=1.921 Xht=1.921 Xlt=0.961
~ wdg=1 bus=node_424371682.1 conn=wye Kv=7.9674 Kva=15.0 %R=0.800
~ wdg=2 bus=node_416105166.1.4 conn=wye Kv=0.1200 Kva=15.0 %R=0.800
~ wdg=3 bus=node_416105166.4.2 conn=wye Kv=0.1200 Kva=15.0 %R=0.800
New Transformer.324827788_325197564 phases=1 windings=3 Xhl=1.921 Xht=1.921 Xlt=0.961
~ wdg=1 bus=node_430038936.3 conn=wye Kv=7.9674 Kva=15.0 %R=0.800
~ wdg=2 bus=node_416076418.1.4 conn=wye Kv=0.1200 Kva=15.0 %R=0.800
~ wdg=3 bus=node_416076418.4.2 conn=wye Kv=0.1200 Kva=15.0 %R=0.800
New Transformer.324343834_325258786 phases=1 windings=3 Xhl=1.921 Xht=1.921 Xlt=0.961
~ wdg=1 bus=node_424370792.1 conn=wye Kv=7.9674 Kva=15.0 %R=0.800
~ wdg=2 bus=node_416076460.1.4 conn=wye Kv=0.1200 Kva=15.0 %R=0.800
~ wdg=3 bus=node_416076460.4.2 conn=wye Kv=0.1200 Kva=15.0 %R=0.800
New Transformer.324970721_325180909 phases=1 windings=3 Xhl=1.921 Xht=1.921 Xlt=0.961
~ wdg=1 bus=node_430196024.2 conn=wye Kv=7.9674 Kva=15.0 %R=0.800
~ wdg=2 bus=node_416277863.1.4 conn=wye Kv=0.1200 Kva=15.0 %R=0.800
~ wdg=3 bus=node_416277863.4.2 conn=wye Kv=0.1200 Kva=15.0 %R=0.800
New Transformer.324972709_325260032 phases=1 windings=3 Xhl=1.921 Xht=1.921 Xlt=0.961
~ wdg=1 bus=node_430197345.1 conn=wye Kv=7.9674 Kva=15.0 %R=0.800
~ wdg=2 bus=node_416076568.1.4 conn=wye Kv=0.1200 Kva=15.0 %R=0.800
~ wdg=3 bus=node_416076568.4.2 conn=wye Kv=0.1200 Kva=15.0 %R=0.800
New Transformer.324972744_325260063 phases=1 windings=3 Xhl=1.921 Xht=1.921 Xlt=0.961
~ wdg=1 bus=node_424371691.1 conn=wye Kv=7.9674 Kva=15.0 %R=0.800
~ wdg=2 bus=node_416104221.1.4 conn=wye Kv=0.1200 Kva=15.0 %R=0.800
~ wdg=3 bus=node_416104221.4.2 conn=wye Kv=0.1200 Kva=15.0 %R=0.800
New Transformer.324972789_325156429 phases=1 windings=3 Xhl=1.921 Xht=1.921 Xlt=0.961
~ wdg=1 bus=node_430195190.3 conn=wye Kv=7.9674 Kva=15.0 %R=0.800
~ wdg=2 bus=node_416076412.1.4 conn=wye Kv=0.1200 Kva=15.0 %R=0.800
~ wdg=3 bus=node_416076412.4.2 conn=wye Kv=0.1200 Kva=15.0 %R=0.800
New Transformer.324972556_325259140 phases=1 windings=3 Xhl=1.921 Xht=1.921 Xlt=0.961
~ wdg=1 bus=node_430355861.1 conn=wye Kv=7.9674 Kva=15.0 %R=0.800
~ wdg=2 bus=node_416344656.1.4 conn=wye Kv=0.1200 Kva=15.0 %R=0.800
~ wdg=3 bus=node_416344656.4.2 conn=wye Kv=0.1200 Kva=15.0 %R=0.800
New Transformer.324971328_325182499 phases=1 windings=3 Xhl=1.921 Xht=1.921 Xlt=0.961
~ wdg=1 bus=node_437814330.3 conn=wye Kv=7.9674 Kva=15.0 %R=0.800
~ wdg=2 bus=node_417435300.1.4 conn=wye Kv=0.1200 Kva=15.0 %R=0.800
~ wdg=3 bus=node_417435300.4.2 conn=wye Kv=0.1200 Kva=15.0 %R=0.800
New Transformer.324973376_325183498 phases=1 windings=3 Xhl=1.921 Xht=1.921 Xlt=0.961
~ wdg=1 bus=node_432383439.1 conn=wye Kv=7.9674 Kva=15.0 %R=0.800
~ wdg=2 bus=node_416102079.1.4 conn=wye Kv=0.1200 Kva=15.0 %R=0.800
~ wdg=3 bus=node_416102079.4.2 conn=wye Kv=0.1200 Kva=15.0 %R=0.800
New Transformer.324661073_325260053 phases=1 windings=3 Xhl=1.921 Xht=1.921 Xlt=0.961
~ wdg=1 bus=node_431491692.1 conn=wye Kv=7.9674 Kva=15.0 %R=0.800
~ wdg=2 bus=node_416105121.1.4 conn=wye Kv=0.1200 Kva=15.0 %R=0.800
~ wdg=3 bus=node_416105121.4.2 conn=wye Kv=0.1200 Kva=15.0 %R=0.800
New Transformer.324973633_325224445 phases=1 windings=3 Xhl=1.921 Xht=1.921 Xlt=0.961
~ wdg=1 bus=node_430535966.1 conn=wye Kv=7.9674 Kva=15.0 %R=0.800
~ wdg=2 bus=node_416102454.1.4 conn=wye Kv=0.1200 Kva=15.0 %R=0.800
~ wdg=3 bus=node_416102454.4.2 conn=wye Kv=0.1200 Kva=15.0 %R=0.800
New Transformer.324973518_325183696 phases=1 windings=3 Xhl=1.921 Xht=1.921 Xlt=0.961
~ wdg=1 bus=node_424371327.3 conn=wye Kv=7.9674 Kva=15.0 %R=0.800
~ wdg=2 bus=node_416318188.1.4 conn=wye Kv=0.1200 Kva=15.0 %R=0.800
~ wdg=3 bus=node_416318188.4.2 conn=wye Kv=0.1200 Kva=15.0 %R=0.800
New Transformer.324970054_1010537124 phases=1 windings=3 Xhl=1.921 Xht=1.921 Xlt=0.961
~ wdg=1 bus=node_436714572.1 conn=wye Kv=7.9674 Kva=15.0 %R=0.800
~ wdg=2 bus=node_417396629.1.4 conn=wye Kv=0.1200 Kva=15.0 %R=0.800
~ wdg=3 bus=node_417396629.4.2 conn=wye Kv=0.1200 Kva=15.0 %R=0.800
New Transformer.324661899_325180745 phases=1 windings=3 Xhl=1.921 Xht=1.921 Xlt=0.961
~ wdg=1 bus=node_430534024.1 conn=wye Kv=7.9674 Kva=15.0 %R=0.800
~ wdg=2 bus=node_416075944.1.4 conn=wye Kv=0.1200 Kva=15.0 %R=0.800
~ wdg=3 bus=node_416075944.4.2 conn=wye Kv=0.1200 Kva=15.0 %R=0.800
New Transformer.324344612_325197553 phases=1 windings=3 Xhl=1.921 Xht=1.921 Xlt=0.961
~ wdg=1 bus=node_441523853.1 conn=wye Kv=7.9674 Kva=15.0 %R=0.800
~ wdg=2 bus=node_416079616.1.4 conn=wye Kv=0.1200 Kva=15.0 %R=0.800
~ wdg=3 bus=node_416079616.4.2 conn=wye Kv=0.1200 Kva=15.0 %R=0.800
New Transformer.324663170_325180751 phases=1 windings=3 Xhl=1.921 Xht=1.921 Xlt=0.961
~ wdg=1 bus=node_429556372.3 conn=wye Kv=7.9674 Kva=15.0 %R=0.800
~ wdg=2 bus=node_416079586.1.4 conn=wye Kv=0.1200 Kva=15.0 %R=0.800
~ wdg=3 bus=node_416079586.4.2 conn=wye Kv=0.1200 Kva=15.0 %R=0.800
New Transformer.840971450_840971449 phases=1 windings=3 Xhl=1.921 Xht=1.921 Xlt=0.961
~ wdg=1 bus=node_1110226937.3 conn=wye Kv=7.9674 Kva=15.0 %R=0.800
~ wdg=2 bus=node_1110226926.1.4 conn=wye Kv=0.1200 Kva=15.0 %R=0.800
~ wdg=3 bus=node_1110226926.4.2 conn=wye Kv=0.1200 Kva=15.0 %R=0.800
New Transformer.338058187_338962261 phases=1 windings=3 Xhl=1.921 Xht=1.921 Xlt=0.961
~ wdg=1 bus=node_427698080.2 conn=wye Kv=7.9674 Kva=15.0 %R=0.800
~ wdg=2 bus=node_422752036.1.4 conn=wye Kv=0.1200 Kva=15.0 %R=0.800
~ wdg=3 bus=node_422752036.4.2 conn=wye Kv=0.1200 Kva=15.0 %R=0.800
New Transformer.338058343_680238304 phases=1 windings=3 Xhl=1.921 Xht=1.921 Xlt=0.961
~ wdg=1 bus=node_442757056.3 conn=wye Kv=7.9674 Kva=15.0 %R=0.800
~ wdg=2 bus=node_422754076.1.4 conn=wye Kv=0.1200 Kva=15.0 %R=0.800
~ wdg=3 bus=node_422754076.4.2 conn=wye Kv=0.1200 Kva=15.0 %R=0.800
New Transformer.337856095_339001682 phases=1 windings=3 Xhl=1.921 Xht=1.921 Xlt=0.961
~ wdg=1 bus=node_429493174.2 conn=wye Kv=7.9674 Kva=15.0 %R=0.800
~ wdg=2 bus=node_422753440.1.4 conn=wye Kv=0.1200 Kva=15.0 %R=0.800
~ wdg=3 bus=node_422753440.4.2 conn=wye Kv=0.1200 Kva=15.0 %R=0.800
New Transformer.338058220_339064535 phases=1 windings=3 Xhl=1.921 Xht=1.921 Xlt=0.961
~ wdg=1 bus=node_436510697.3 conn=wye Kv=7.9674 Kva=15.0 %R=0.800
~ wdg=2 bus=node_414114067.1.4 conn=wye Kv=0.1200 Kva=15.0 %R=0.800
~ wdg=3 bus=node_414114067.4.2 conn=wye Kv=0.1200 Kva=15.0 %R=0.800
New Transformer.338059220_338963643 phases=1 windings=3 Xhl=1.921 Xht=1.921 Xlt=0.961
~ wdg=1 bus=node_434406855.2 conn=wye Kv=7.9674 Kva=15.0 %R=0.800
~ wdg=2 bus=node_416043522.1.4 conn=wye Kv=0.1200 Kva=15.0 %R=0.800
~ wdg=3 bus=node_416043522.4.2 conn=wye Kv=0.1200 Kva=15.0 %R=0.800
New Transformer.324344831_325224697 phases=1 windings=3 Xhl=1.921 Xht=1.921 Xlt=0.961
~ wdg=1 bus=node_424436157.3 conn=wye Kv=7.9674 Kva=15.0 %R=0.800
~ wdg=2 bus=node_416318605.1.4 conn=wye Kv=0.1200 Kva=15.0 %R=0.800
~ wdg=3 bus=node_416318605.4.2 conn=wye Kv=0.1200 Kva=15.0 %R=0.800
New Transformer.324345064_325180743 phases=1 windings=3 Xhl=1.921 Xht=1.921 Xlt=0.961
~ wdg=1 bus=node_429880573.3 conn=wye Kv=7.9674 Kva=15.0 %R=0.800
~ wdg=2 bus=node_416075932.1.4 conn=wye Kv=0.1200 Kva=15.0 %R=0.800
~ wdg=3 bus=node_416075932.4.2 conn=wye Kv=0.1200 Kva=15.0 %R=0.800
New Transformer.324344883_899039147 phases=1 windings=3 Xhl=1.921 Xht=1.921 Xlt=0.961
~ wdg=1 bus=node_1110226738.3 conn=wye Kv=7.9674 Kva=15.0 %R=0.800
~ wdg=2 bus=node_1110226779.1.4 conn=wye Kv=0.1200 Kva=15.0 %R=0.800
~ wdg=3 bus=node_1110226779.4.2 conn=wye Kv=0.1200 Kva=15.0 %R=0.800
New Transformer.324345135_325156456 phases=1 windings=3 Xhl=1.921 Xht=1.921 Xlt=0.961
...